  
       XFOIL         Version 6.99
  
 Calculated polar for: Blended_r0.792                                  
  
 1 1 Reynolds number fixed          Mach number fixed         
  
 xtrf =   1.000 (top)        1.000 (bottom)  
 Mach =   0.052     Re =     0.189 e 6     Ncrit =   9.000
  
   alpha    CL        CD       CDp       CM     Top_Xtr  Bot_Xtr
  ------ -------- --------- --------- -------- -------- --------
   0.000   0.4745   0.01097   0.00542  -0.1076   0.8208   1.0000
   1.000   0.5821   0.01106   0.00511  -0.1058   0.7904   1.0000
   2.000   0.6879   0.01118   0.00502  -0.1036   0.7532   1.0000
   3.000   0.7943   0.01133   0.00506  -0.1017   0.7125   1.0000
   4.000   0.9003   0.01161   0.00525  -0.0997   0.6668   1.0000
   5.000   1.0002   0.01203   0.00568  -0.0967   0.6016   1.0000
   6.000   1.0912   0.01287   0.00630  -0.0922   0.5026   1.0000
   7.000   1.1640   0.01489   0.00763  -0.0856   0.3423   1.0000
   8.000   1.2185   0.01847   0.01031  -0.0775   0.1680   1.0000
   9.000   1.2561   0.02280   0.01394  -0.0675   0.0549   1.0000
  10.000   1.2994   0.02669   0.01815  -0.0591   0.0333   1.0000
   0.000   0.4745   0.01097   0.00542  -0.1076   0.8208   1.0000
  -1.000   0.3683   0.01087   0.00590  -0.1096   0.8498   1.0000
  -2.000   0.2522   0.01441   0.00667  -0.1099   0.8742   0.0670
  -3.000   0.1439   0.01736   0.00980  -0.1117   0.8995   0.0457
  -5.000  -0.1023   0.03939   0.03504  -0.1051   0.9403   0.0802
