  
       XFOIL         Version 6.99
  
 Calculated polar for: DAE51                                           
  
 1 1 Reynolds number fixed          Mach number fixed         
  
 xtrf =   1.000 (top)        1.000 (bottom)  
 Mach =   0.022     Re =     0.067 e 6     Ncrit =   9.000
  
   alpha    CL        CD       CDp       CM     Top_Xtr  Bot_Xtr
  ------ -------- --------- --------- -------- -------- --------
   0.000   0.2247   0.02586   0.01768  -0.0810   0.9239   1.0000
   1.000   0.3667   0.02841   0.01938  -0.0888   0.8837   1.0000
   2.000   0.4917   0.03074   0.02134  -0.0928   0.8400   1.0000
   3.000   0.6186   0.03266   0.02320  -0.0960   0.7952   1.0000
   4.000   0.7546   0.03348   0.02425  -0.0986   0.7500   1.0000
   5.000   0.8696   0.03382   0.02499  -0.0966   0.6975   1.0000
   6.000   1.0255   0.03001   0.02182  -0.0955   0.6474   1.0000
   7.000   1.1490   0.02701   0.01937  -0.0899   0.5656   1.0000
   8.000   1.2353   0.02584   0.01821  -0.0801   0.4299   1.0000
   9.000   1.2442   0.03060   0.02188  -0.0641   0.2336   1.0000
  10.000   1.2830   0.04034   0.03032  -0.0549   0.1138   1.0000
   0.000   0.2247   0.02586   0.01768  -0.0810   0.9239   1.0000
  -1.000   0.0774   0.02770   0.01783  -0.0740   0.9585   0.1681
  -2.000  -0.0849   0.03171   0.02251  -0.0646   0.9876   0.1074
  -5.000  -0.4194   0.07784   0.07316  -0.0170   1.0000   0.1925
