  
       XFOIL         Version 6.99
  
 Calculated polar for: Blended_r0.799                                  
  
 1 1 Reynolds number fixed          Mach number fixed         
  
 xtrf =   1.000 (top)        1.000 (bottom)  
 Mach =   0.052     Re =     0.121 e 6     Ncrit =   9.000
  
   alpha    CL        CD       CDp       CM     Top_Xtr  Bot_Xtr
  ------ -------- --------- --------- -------- -------- --------
   0.000   0.4331   0.01659   0.01003  -0.1070   0.8506   1.0000
   0.500   0.4940   0.01665   0.00986  -0.1073   0.8356   1.0000
   1.000   0.5536   0.01666   0.00970  -0.1073   0.8203   1.0000
   1.500   0.6125   0.01660   0.00951  -0.1070   0.8048   1.0000
   2.000   0.6715   0.01645   0.00928  -0.1065   0.7892   1.0000
   2.500   0.7215   0.01660   0.00941  -0.1048   0.7678   1.0000
   3.000   0.7794   0.01634   0.00913  -0.1039   0.7497   1.0000
   3.500   0.8313   0.01638   0.00920  -0.1024   0.7273   1.0000
   4.000   0.8878   0.01620   0.00901  -0.1014   0.7066   1.0000
   4.500   0.9410   0.01615   0.00906  -0.0999   0.6816   1.0000
   5.000   0.9941   0.01605   0.00897  -0.0983   0.6531   1.0000
   5.500   1.0430   0.01619   0.00920  -0.0963   0.6199   1.0000
   6.000   1.0914   0.01623   0.00930  -0.0939   0.5792   1.0000
   6.500   1.1353   0.01642   0.00942  -0.0909   0.5269   1.0000
   7.000   1.1745   0.01698   0.00989  -0.0875   0.4672   1.0000
   7.500   1.2038   0.01801   0.01064  -0.0828   0.3807   1.0000
   8.000   1.2303   0.01956   0.01186  -0.0783   0.2992   1.0000
   8.500   1.2490   0.02168   0.01355  -0.0731   0.2128   1.0000
   9.000   1.2586   0.02433   0.01577  -0.0670   0.1358   1.0000
   9.500   1.2612   0.02758   0.01864  -0.0605   0.0848   1.0000
  10.000   1.2699   0.03068   0.02177  -0.0554   0.0638   1.0000
   0.000   0.4331   0.01659   0.01003  -0.1070   0.8506   1.0000
  -0.500   0.3705   0.01649   0.01024  -0.1061   0.8653   1.0000
  -1.000   0.3044   0.01637   0.01058  -0.1044   0.8792   1.0000
  -1.500   0.2239   0.01839   0.01086  -0.1011   0.8884   0.2824
  -2.000   0.1603   0.02090   0.01229  -0.0993   0.9004   0.0736
  -2.500   0.0939   0.02295   0.01437  -0.0976   0.9126   0.0634
  -3.000   0.0140   0.02593   0.01793  -0.0937   0.9205   0.0629
  -3.500  -0.0598   0.03075   0.02394  -0.0911   0.9305   0.0748
  -4.000  -0.1492   0.04474   0.04010  -0.0819   0.9407   0.1641
  -4.500  -0.2051   0.05021   0.04582  -0.0763   0.9531   0.1231
  -5.000  -0.2627   0.05739   0.05306  -0.0710   0.9624   0.1062
